15
Lattice="15.0 0.0 0.0 0.0 15.0 0.0 0.0 0.0 15.0" Properties=species:S:1:pos:R:3 pbc="T T T"
Cu       4.37793360       6.30220410       8.30065905
Cu       5.65557150       8.24185590       7.33384800
Cu       5.92964475       4.37647335       8.48947155
Cu       8.01779265       7.61731335       7.22330355
Cu       8.26183725       5.19009300       7.94117520
Cu       6.71967000       6.52659045       9.17460945
Cu       6.28042635       5.96896245       6.73900785
Cu       3.40007925       8.58064155       8.15208195
Cu       5.02045710       8.17524990       9.79979775
Cu       5.29576410      10.26856215       8.54238465
Cu       7.32825945      10.02815730       7.18945800
Cu       9.21679440       7.16325075       9.23872725
Cu       7.29155145       8.88494010       9.25885530
C       11.01045690       7.33263090       9.67478310
O       12.15393300       7.36288965       9.52448040
