15
Lattice="15.0 0.0 0.0 0.0 15.0 0.0 0.0 0.0 15.0" Properties=species:S:1:pos:R:3 pbc="T T T"
Cu       4.36669245       6.25493970       8.37592965
Cu       5.61500985       8.16985020       7.41727875
Cu       5.92089120       4.39871040       8.38981560
Cu       7.98588120       7.56613890       7.21233210
Cu       8.19996840       5.23375410       7.97853885
Cu       6.69140685       6.57645195       9.20078805
Cu       6.24417810       5.99369805       6.64124145
Cu       3.36925935       8.45726550       8.28408165
Cu       5.01087030       8.18469180       9.94807725
Cu       5.29176675      10.23606180       8.52902325
Cu       7.25863140       9.95482590       7.07727270
Cu       9.52086195       7.34539965       8.95761030
Cu       7.25749470       8.88231375       9.22293810
C       11.18965545       7.41616695       9.71907900
O       12.26910465       7.57895940      10.08082260
