15
Lattice="15.0 0.0 0.0 0.0 15.0 0.0 0.0 0.0 15.0" Properties=species:S:1:pos:R:3 pbc="T T T"
Cu       4.40746260       6.25455045       8.42890905
Cu       5.52888990       8.14845240       7.47131625
Cu       5.92880355       4.33677795       8.37376275
Cu       7.94191485       7.57956615       7.20096165
Cu       8.25453795       5.32098750       7.95128910
Cu       6.74118765       6.55938225       9.16979280
Cu       6.20223570       5.97627465       6.69142065
Cu       3.31221810       8.47672470       8.34100065
Cu       5.10428235       8.18826435       9.93375060
Cu       5.21387055      10.20406965       8.56529250
Cu       7.21301460       9.88503255       7.04229465
Cu       9.61541820       7.38098385       8.81505480
Cu       7.31480010       8.88466170       9.16041735
C       11.12864085       7.58183280       9.81658890
O       12.13331025       7.68643410      10.36373970
