15
Lattice="15.0 0.0 0.0 0.0 15.0 0.0 0.0 0.0 15.0" Properties=species:S:1:pos:R:3 pbc="T T T"
Cu       4.41217530       6.25434345       8.44061250
Cu       5.51481420       8.15166135       7.47325740
Cu       5.93655180       4.32516045       8.37693045
Cu       7.93331640       7.58839095       7.19033160
Cu       8.27494035       5.32834965       7.93860810
Cu       6.74820360       6.54767610       9.16668930
Cu       6.19434270       5.96925930       6.70703160
Cu       3.30475740       8.48496780       8.35360065
Cu       5.12007900       8.18768730       9.92261265
Cu       5.19867150      10.20087510       8.57279235
Cu       7.20010275       9.87556215       7.03865145
Cu       9.62483295       7.37971350       8.79923190
Cu       7.33179150       8.89059105       9.15223350
C       11.09104125       7.62488715       9.83154945
O       12.09821475       7.69974735      10.40286615
