15
Lattice="15.0 0.0 0.0 0.0 15.0 0.0 0.0 0.0 15.0" Properties=species:S:1:pos:R:3 pbc="T T T"
Cu       4.41276450       6.24452175       8.50978110
Cu       5.47384605       8.17500480       7.43794410
Cu       6.00389430       4.27403505       8.42126565
Cu       7.89815175       7.62211140       7.11048435
Cu       8.39409060       5.33590995       7.84799235
Cu       6.78449625       6.48757485       9.15853350
Cu       6.16606950       5.93616090       6.79281360
Cu       3.28777020       8.52421905       8.42888805
Cu       5.18818245       8.17241145       9.86552070
Cu       5.13987975      10.21332900       8.60382855
Cu       7.11175965       9.87627855       7.01452440
Cu       9.58969125       7.36914480       8.74384725
Cu       7.40977485       8.91256470       9.13886265
C       11.00473170       7.67099295       9.88564530
O       11.90170665       7.82786100      10.59379080
