15
Lattice="15.0 0.0 0.0 0.0 15.0 0.0 0.0 0.0 15.0" Properties=species:S:1:pos:R:3 pbc="T T T"
Cu       4.40634000       6.23727735       8.54241540
Cu       5.46657555       8.18059725       7.40715990
Cu       6.04520295       4.25572740       8.45493075
Cu       7.88449530       7.62596730       7.07055540
Cu       8.43887580       5.33426835       7.79858085
Cu       6.81165840       6.46873650       9.15111510
Cu       6.16215255       5.92657845       6.82973745
Cu       3.29162490       8.53519860       8.46673125
Cu       5.21562975       8.16076260       9.84666945
Cu       5.12781210      10.22976975       8.61166905
Cu       7.06341495       9.90266925       7.00316640
Cu       9.54704685       7.36656045       8.73737175
Cu       7.43351925       8.90965590       9.13795470
C       10.97545920       7.61769420       9.88865760
O       11.78873700       7.90559190      10.65598485
