15
Lattice="15.0 0.0 0.0 0.0 15.0 0.0 0.0 0.0 15.0" Properties=species:S:1:pos:R:3 pbc="T T T"
Cu       4.40299665       6.25440180       8.42080110
Cu       5.54029185       8.14720965       7.46787645
Cu       5.92446585       4.34556660       8.37265545
Cu       7.94845185       7.57370040       7.20706845
Cu       8.24127390       5.31353025       7.95914535
Cu       6.73543950       6.56702265       9.17284785
Cu       6.20821815       5.98102605       6.68071215
Cu       3.31853355       8.47107900       8.33228295
Cu       5.09206455       8.18826750       9.94098930
Cu       5.22536010      10.20739515       8.55970305
Cu       7.22148690       9.89338380       7.04507895
Cu       9.60561690       7.38106095       8.82829140
Cu       7.30283460       8.88090285       9.16763625
C       11.14599885       7.54589445       9.79849245
O       12.16635885       7.67838960      10.33829970
