15
Lattice="15.0 0.0 0.0 0.0 15.0 0.0 0.0 0.0 15.0" Properties=species:S:1:pos:R:3 pbc="T T T"
Cu       4.41393345       6.25401510       8.44686750
Cu       5.50840125       8.15379225       7.47300240
Cu       5.94128790       4.31942415       8.37927060
Cu       7.92914340       7.59298740       7.18400535
Cu       8.28617655       5.33099505       7.93133910
Cu       6.75150630       6.54137415       9.16551735
Cu       6.19050345       5.96556615       6.71531940
Cu       3.30147570       8.48928720       8.36033805
Cu       5.12775090       8.18709975       9.91660320
Cu       5.19123405      10.19993220       8.57650965
Cu       7.19291520       9.87176550       7.03674045
Cu       9.62743455       7.37872035       8.79185040
Cu       7.34053440       8.89375215       9.14886060
C       11.07800610       7.64379405       9.84113325
O       12.07734945       7.70750445      10.42092885
