15
Lattice="15.0 0.0 0.0 0.0 15.0 0.0 0.0 0.0 15.0" Properties=species:S:1:pos:R:3 pbc="T T T"
Cu       4.36556400       6.28710930       8.31709335
Cu       5.65558530       8.23158555       7.34590260
Cu       5.93081505       4.39629675       8.46501525
Cu       8.01480105       7.60738215       7.21450395
Cu       8.24168325       5.18085555       7.95064290
Cu       6.69623445       6.52933785       9.19023645
Cu       6.27490785       5.97389655       6.70417230
Cu       3.40353840       8.54162505       8.18902860
Cu       4.99602825       8.17826160       9.84004470
Cu       5.30665770      10.26391950       8.53219305
Cu       7.30872060      10.01516910       7.16479440
Cu       9.29282205       7.20411480       9.17650275
Cu       7.28146425       8.89425645       9.25864695
C       11.06513220       7.41282195       9.72704070
O       12.21996210       7.38404670       9.62267850
