15
Lattice="15.0 0.0 0.0 0.0 15.0 0.0 0.0 0.0 15.0" Properties=species:S:1:pos:R:3 pbc="T T T"
Cu       4.35937335       6.27776820       8.32861965
Cu       5.65370700       8.22255645       7.35612990
Cu       5.93076270       4.40643480       8.44819950
Cu       8.01144135       7.59964890       7.20990240
Cu       8.22857025       5.17918005       7.95742590
Cu       6.68483340       6.53455350       9.19874280
Cu       6.27053535       5.97791520       6.68279310
Cu       3.40344090       8.51692065       8.21283195
Cu       4.98476970       8.18005305       9.86685480
Cu       5.31162465      10.26000885       8.52679515
Cu       7.29625875      10.00557360       7.14701670
Cu       9.34625955       7.23332010       9.13401885
Cu       7.27423260       8.89767135       9.25672110
C       11.09120805       7.44567375       9.74213055
O       12.25207035       7.40786130       9.70160895
